/*--------------------------------*- C++ -*----------------------------------*\
| =========                 |                                                 |
| \\      /  F ield         | OpenFOAM: The Open Source CFD Toolbox           |
|  \\    /   O peration     | Version:  v2012                                 |
|   \\  /    A nd           | Website:  www.openfoam.com                      |
|    \\/     M anipulation  |                                                 |
\*---------------------------------------------------------------------------*/
FoamFile
{
    version     2.0;
    format      ascii;
    class       dictionary;
    object      blockMeshDict;
}
// * * * * * * * * * * * * * * * * * * * * * * * * * * * * * * * * * * * * * //

scale   0.0001;

vertices
(
    (0 0 0)
    (5 0 0)
    (5 3 0)
    (0 3 0)
    (0 0 2)
    (5 0 2)
    (5 3 2)
    (0 3 2)
);

blocks
(
    hex (0 1 2 3 4 5 6 7) (100 60 40) simpleGrading (1 1 1)
);

edges
(
);

boundary
(
    left
    {
        type wall;
        faces
        (
            (3 7 6 2)
        );
    }
    right
    {
        type wall;
        faces
        (
            (1 5 4 0)
        );
    }
    bottom
    {
        type wall;
        faces
        (
            (0 3 2 1)
        );
    }
    top
    {
        type patch;
        faces
        (
             (4 5 6 7)
        );
    }
    front
    {
        type wall;
        faces
        (
            (2 6 5 1)
        );
    }
    back
    {
        type wall;
        faces
        (
            (0 4 7 3)
        );
    }
);

// ************************************************************************* //
